LTspice 26.0.1 for Windows
Circuit: D:\LTSpice\pedal-circuits\triggerSchmittFuzz-trialAndError.net
Start Time: Mon Apr  6 20:53:29 2026
solver = Normal
Maximum thread count: 20
tnom = 27
temp = 27
method = trap
Direct Newton iteration succeeded in finding operating point.
Total elapsed time: 0.250 seconds.

Files loaded:
D:\LTSpice\pedal-circuits\triggerSchmittFuzz-trialAndError.net
C:\Users\adeli\AppData\Local\LTspice\lib\cmp\standard.dio
C:\Users\adeli\AppData\Local\LTspice\lib\cmp\standard.bjt
C:\Users\adeli\AppData\Local\LTspice\lib\sub\LTC.lib

