LTspice 26.0.1 for Windows
Circuit: D:\LTSpice\pedal-circuits\triggerSchmittFuzz-trialAndError.net
Start Time: Wed Apr 15 14:13:16 2026
solver = Normal
Maximum thread count: 20
tnom = 27
temp = 27
method = trap
Direct Newton iteration failed to find operating point.
Starting Gmin stepping
Gmin stepping succeeded in finding the operating point.

Total elapsed time: 0.705 seconds.

Files loaded:
D:\LTSpice\pedal-circuits\triggerSchmittFuzz-trialAndError.net
C:\Users\adeli\AppData\Local\LTspice\lib\cmp\standard.dio
C:\Users\adeli\AppData\Local\LTspice\lib\cmp\standard.bjt
D:\LTSpice\pedal-circuits\ua741.lib
C:\Users\adeli\AppData\Local\LTspice\lib\sub\LTC.lib
C:\Users\adeli\AppData\Local\LTspice\lib\sub\UniversalOpAmp2.lib

